xflr5 v6.47

Plane Name
T1-10.0 m/s-Panel-Inviscid
QInf  =   10.000000 m/s
Alpha =   10.000000
Beta  =    0.000°
Phi   =    0.000°
Ctrl  =    0.000
CL    =    1.030717
Cy    =    0.000000
Cd    =    0.033823     ICd   =    0.033823     PCd   =    0.000000
Cl   = 5.07198e-15
Cm   =     -2.1154
ICn   =   -0.000000     PCn   =   -0.000000 
XCP   =    6.459095     YCP   =   -0.000000     ZCP   =    0.319750  
XNP   =    0.000000
Bending = 3104.581691

Main Wing
  y-span        Chord      Ai         Cl        PCd          ICd        CmGeom    CmAirf@chord/4    XTrtop    XTrBot      XCP       BM
  -13.8912     1.2156    -9.881    0.427072    0.000000    0.074393   -4.585665    0.050348     0.0000    0.0000    0.1334    0.0000
  -13.7963     1.2377    -7.706    0.697550    0.000000    0.094379   -7.246541    0.002573     0.0000    0.0000    0.2423    0.0341
  -13.6072     1.2819    -5.970    0.916703    0.000000    0.095848   -8.989997   -0.015876     0.0000    0.0000    0.2625    0.4405
  -13.3251     1.3478    -4.529    1.061816    0.000000    0.084077   -9.781892   -0.038583     0.0000    0.0000    0.2815    2.1861
  -12.9520     1.4349    -3.395    1.143323    0.000000    0.067785   -9.692469   -0.055279     0.0000    0.0000    0.2934    7.0473
  -12.4904     1.5427    -2.576    1.179996    0.000000    0.053060   -9.031126   -0.064482     0.0000    0.0000    0.2996   17.6725
  -11.9435     1.6705    -2.062    1.189672    0.000000    0.042786   -8.091465   -0.068904     0.0000    0.0000    0.3029   37.5865
  -11.3150     1.8173    -1.774    1.183922    0.000000    0.036635   -7.062053   -0.070935     0.0000    0.0000    0.3048   71.1812
  -10.6092     1.9821    -1.637    1.169027    0.000000    0.033364   -6.045639   -0.071834     0.0000    0.0000    0.3063   123.6883
   -9.8310     2.1639    -1.594    1.148201    0.000000    0.031911   -5.093904   -0.072180     0.0000    0.0000    0.3077   201.1108
   -8.9856     2.3613    -1.612    1.123045    0.000000    0.031554   -4.229662   -0.072257     0.0000    0.0000    0.3092   310.0951
   -8.0788     2.5731    -1.669    1.094276    0.000000    0.031816   -3.460353   -0.072201     0.0000    0.0000    0.3109   457.7321
   -7.1168     2.7978    -1.749    1.062093    0.000000    0.032365   -2.785003   -0.072101     0.0000    0.0000    0.3128   651.2835
   -6.1062     3.0338    -1.843    1.026326    0.000000    0.032935   -2.198373   -0.072031     0.0000    0.0000    0.3151   897.8336
   -5.0539     3.2796    -1.937    0.986500    0.000000    0.033270   -1.693593   -0.072112     0.0000    0.0000    0.3180   1203.8739
   -3.9671     3.5334    -2.016    0.941786    0.000000    0.033020   -1.263447   -0.072644     0.0000    0.0000    0.3221   1574.8323
   -2.8531     3.7936    -2.042    0.890895    0.000000    0.031577   -0.901614   -0.074383     0.0000    0.0000    0.3287   2014.5603
   -1.7197     4.0583    -1.916    0.831850    0.000000    0.027522   -0.603960   -0.079425     0.0000    0.0000    0.3411   2524.7915
   -0.5745     4.3258    -1.235    0.760420    0.000000    0.015375   -0.372451   -0.095654     0.0000    0.0000    0.3742   3104.5817
    0.5745     4.3258    -1.235    0.760420    0.000000    0.015375   -0.372451   -0.095654     0.0000    0.0000    0.3742   3104.5817
    1.7197     4.0583    -1.916    0.831850    0.000000    0.027522   -0.603960   -0.079425     0.0000    0.0000    0.3411   2524.7915
    2.8531     3.7936    -2.042    0.890895    0.000000    0.031577   -0.901614   -0.074383     0.0000    0.0000    0.3287   2014.5603
    3.9671     3.5334    -2.016    0.941786    0.000000    0.033020   -1.263447   -0.072644     0.0000    0.0000    0.3221   1574.8323
    5.0539     3.2796    -1.937    0.986500    0.000000    0.033270   -1.693593   -0.072112     0.0000    0.0000    0.3180   1203.8739
    6.1062     3.0338    -1.843    1.026326    0.000000    0.032935   -2.198373   -0.072031     0.0000    0.0000    0.3151   897.8336
    7.1168     2.7978    -1.749    1.062093    0.000000    0.032365   -2.785003   -0.072101     0.0000    0.0000    0.3128   651.2835
    8.0788     2.5731    -1.669    1.094276    0.000000    0.031816   -3.460353   -0.072201     0.0000    0.0000    0.3109   457.7321
    8.9856     2.3613    -1.612    1.123045    0.000000    0.031554   -4.229662   -0.072257     0.0000    0.0000    0.3092   310.0951
    9.8310     2.1639    -1.594    1.148201    0.000000    0.031911   -5.093904   -0.072180     0.0000    0.0000    0.3077   201.1108
   10.6092     1.9821    -1.637    1.169027    0.000000    0.033364   -6.045639   -0.071834     0.0000    0.0000    0.3063   123.6883
   11.3150     1.8173    -1.774    1.183922    0.000000    0.036635   -7.062053   -0.070935     0.0000    0.0000    0.3048   71.1812
   11.9435     1.6705    -2.062    1.189672    0.000000    0.042786   -8.091465   -0.068904     0.0000    0.0000    0.3029   37.5865
   12.4904     1.5427    -2.576    1.179996    0.000000    0.053060   -9.031126   -0.064482     0.0000    0.0000    0.2996   17.6725
   12.9520     1.4349    -3.395    1.143323    0.000000    0.067785   -9.692469   -0.055279     0.0000    0.0000    0.2934    7.0473
   13.3251     1.3478    -4.529    1.061816    0.000000    0.084077   -9.781892   -0.038583     0.0000    0.0000    0.2815    2.1861
   13.6072     1.2819    -5.970    0.916703    0.000000    0.095848   -8.989997   -0.015876     0.0000    0.0000    0.2625    0.4405
   13.7963     1.2377    -7.706    0.697550    0.000000    0.094379   -7.246541    0.002573     0.0000    0.0000    0.2423    0.0341
   13.8912     1.2156    -9.881    0.427072    0.000000    0.074393   -4.585665    0.050348     0.0000    0.0000    0.1334    0.0000


Main Wing Cp Coefficients
 Panel     CtrlPt.x        CtrlPt.y        CtrlPt.z       Nx      Ny       Nz        Area       Cp
Main WingCp Coefficients
Strip 1
  13       1.337e+01      -1.388e+01       4.715e-01           0.080           0.014          -0.997       8.431e-04         -0.9906
  14       1.333e+01      -1.388e+01       4.754e-01          -0.174          -0.149          -0.973       2.525e-03         -1.0797
  15       1.326e+01      -1.388e+01       4.817e-01          -0.040          -0.062          -0.997       3.961e-03         -0.9321
  16       1.317e+01      -1.388e+01       4.766e-01           0.122           0.047          -0.991       5.269e-03         -0.6755
  17       1.305e+01      -1.388e+01       4.560e-01           0.207           0.107          -0.972       6.371e-03         -0.4375
  18       1.291e+01      -1.388e+01       4.287e-01           0.184           0.090          -0.979       6.938e-03         -0.2934
  19       1.277e+01      -1.389e+01       4.086e-01           0.089           0.019          -0.996       7.006e-03         -0.2272
  20       1.262e+01      -1.389e+01       4.014e-01           0.010          -0.043          -0.999       6.767e-03         -0.1829
  21       1.249e+01      -1.389e+01       4.036e-01          -0.045          -0.087          -0.995       6.185e-03         -0.1383
  22       1.237e+01      -1.389e+01       4.120e-01          -0.098          -0.131          -0.987       5.266e-03         -0.0684
  23       1.227e+01      -1.388e+01       4.249e-01          -0.175          -0.194          -0.965       4.075e-03          0.0679
  24       1.220e+01      -1.388e+01       4.429e-01          -0.355          -0.345          -0.869       2.806e-03          0.1769
  25       1.217e+01      -1.388e+01       4.688e-01          -0.692          -0.619          -0.373       2.131e-03         -0.4601
  26       1.217e+01      -1.388e+01       5.001e-01          -0.694          -0.593           0.408       2.167e-03         -2.1722
  27       1.220e+01      -1.388e+01       5.265e-01          -0.357          -0.286           0.889       2.810e-03         -2.8402
  28       1.227e+01      -1.388e+01       5.447e-01          -0.177          -0.129           0.976       4.073e-03         -1.4266
  29       1.237e+01      -1.388e+01       5.576e-01          -0.096          -0.060           0.994       5.257e-03         -0.8833
  30       1.249e+01      -1.388e+01       5.658e-01          -0.044          -0.017           0.999       6.176e-03         -0.6837
  31       1.262e+01      -1.388e+01       5.689e-01          -0.002           0.017           1.000       6.757e-03         -0.5839
  32       1.277e+01      -1.388e+01       5.664e-01           0.036           0.046           0.998       6.963e-03         -0.5292
  33       1.291e+01      -1.388e+01       5.581e-01           0.079           0.078           0.994       6.784e-03         -0.5145
  34       1.305e+01      -1.388e+01       5.439e-01           0.131           0.116           0.985       6.237e-03         -0.5435
  35       1.317e+01      -1.388e+01       5.247e-01           0.189           0.155           0.970       5.347e-03         -0.6432
  36       1.326e+01      -1.388e+01       5.036e-01           0.240           0.189           0.952       4.127e-03         -0.7958
  37       1.333e+01      -1.388e+01       4.856e-01           0.279           0.214           0.936       2.618e-03         -0.5710
  38       1.337e+01      -1.388e+01       4.750e-01           0.303           0.229           0.925       9.003e-04         -0.3883
Strip 2
  39       1.330e+01      -1.379e+01       4.679e-01           0.080           0.014          -0.997       2.570e-03         -0.4915
  40       1.327e+01      -1.379e+01       4.719e-01          -0.174          -0.149          -0.973       7.696e-03         -0.4305
  41       1.320e+01      -1.379e+01       4.783e-01          -0.040          -0.062          -0.997       1.207e-02         -0.3367
  42       1.310e+01      -1.379e+01       4.731e-01           0.122           0.047          -0.991       1.606e-02         -0.2314
  43       1.298e+01      -1.379e+01       4.521e-01           0.207           0.107          -0.972       1.941e-02         -0.1561
  44       1.284e+01      -1.379e+01       4.243e-01           0.184           0.090          -0.979       2.114e-02         -0.1452
  45       1.270e+01      -1.379e+01       4.039e-01           0.089           0.019          -0.996       2.135e-02         -0.1452
  46       1.255e+01      -1.379e+01       3.965e-01           0.010          -0.043          -0.999       2.062e-02         -0.1034
  47       1.241e+01      -1.379e+01       3.988e-01          -0.045          -0.087          -0.995       1.885e-02         -0.0323
  48       1.229e+01      -1.379e+01       4.073e-01          -0.098          -0.131          -0.987       1.605e-02          0.0782
  49       1.219e+01      -1.379e+01       4.205e-01          -0.175          -0.194          -0.965       1.242e-02          0.2403
  50       1.212e+01      -1.379e+01       4.388e-01          -0.355          -0.345          -0.869       8.553e-03          0.2693
  51       1.209e+01      -1.379e+01       4.652e-01          -0.691          -0.619          -0.373       6.496e-03         -0.7088
  52       1.209e+01      -1.379e+01       4.971e-01          -0.694          -0.594           0.408       6.605e-03         -2.8220
  53       1.212e+01      -1.379e+01       5.240e-01          -0.358          -0.286           0.889       8.561e-03         -3.5680
  54       1.219e+01      -1.379e+01       5.424e-01          -0.177          -0.129           0.976       1.241e-02         -1.8541
  55       1.229e+01      -1.379e+01       5.556e-01          -0.096          -0.060           0.994       1.602e-02         -1.1246
  56       1.241e+01      -1.379e+01       5.640e-01          -0.044          -0.017           0.999       1.882e-02         -0.7990
  57       1.255e+01      -1.379e+01       5.671e-01          -0.002           0.017           1.000       2.059e-02         -0.6388
  58       1.270e+01      -1.379e+01       5.646e-01           0.036           0.046           0.998       2.122e-02         -0.5605
  59       1.284e+01      -1.379e+01       5.562e-01           0.079           0.078           0.994       2.068e-02         -0.5286
  60       1.298e+01      -1.379e+01       5.417e-01           0.131           0.116           0.985       1.901e-02         -0.5186
  61       1.310e+01      -1.379e+01       5.221e-01           0.189           0.155           0.970       1.630e-02         -0.5152
  62       1.320e+01      -1.379e+01       5.007e-01           0.240           0.189           0.952       1.258e-02         -0.4599
  63       1.327e+01      -1.379e+01       4.823e-01           0.279           0.214           0.936       7.980e-03         -0.2489
  64       1.330e+01      -1.379e+01       4.715e-01           0.303           0.229           0.925       2.744e-03         -0.1090
Strip 3
  65       1.318e+01      -1.360e+01       4.608e-01           0.080           0.014          -0.997       4.415e-03         -0.1158
  66       1.315e+01      -1.360e+01       4.649e-01          -0.174          -0.149          -0.973       1.323e-02          0.0719
  67       1.308e+01      -1.360e+01       4.716e-01          -0.040          -0.062          -0.997       2.074e-02          0.1388
  68       1.297e+01      -1.360e+01       4.662e-01           0.122           0.047          -0.991       2.759e-02          0.1216
  69       1.285e+01      -1.360e+01       4.445e-01           0.207           0.107          -0.972       3.335e-02          0.0648
  70       1.270e+01      -1.360e+01       4.157e-01           0.184           0.090          -0.979       3.632e-02         -0.0105
  71       1.255e+01      -1.360e+01       3.946e-01           0.089           0.019          -0.996       3.669e-02         -0.0343
  72       1.240e+01      -1.360e+01       3.869e-01           0.010          -0.043          -0.999       3.544e-02          0.0247
  73       1.226e+01      -1.360e+01       3.893e-01          -0.045          -0.087          -0.995       3.239e-02          0.1319
  74       1.213e+01      -1.360e+01       3.981e-01          -0.098          -0.131          -0.987       2.758e-02          0.2742
  75       1.203e+01      -1.360e+01       4.117e-01          -0.175          -0.194          -0.965       2.135e-02          0.4319
  76       1.196e+01      -1.360e+01       4.307e-01          -0.354          -0.345          -0.869       1.470e-02          0.3711
  77       1.192e+01      -1.360e+01       4.580e-01          -0.691          -0.618          -0.374       1.117e-02         -0.8556
  78       1.192e+01      -1.360e+01       4.911e-01          -0.694          -0.594           0.407       1.134e-02         -3.2681
  79       1.196e+01      -1.360e+01       5.189e-01          -0.358          -0.286           0.889       1.470e-02         -4.0600
  80       1.203e+01      -1.360e+01       5.380e-01          -0.177          -0.129           0.976       2.132e-02         -2.1586
  81       1.213e+01      -1.360e+01       5.516e-01          -0.096          -0.060           0.994       2.752e-02         -1.3487
  82       1.226e+01      -1.360e+01       5.603e-01          -0.044          -0.017           0.999       3.234e-02         -0.9572
  83       1.240e+01      -1.360e+01       5.635e-01          -0.002           0.017           1.000       3.539e-02         -0.7264
  84       1.255e+01      -1.360e+01       5.609e-01           0.036           0.046           0.998       3.647e-02         -0.5820
  85       1.270e+01      -1.360e+01       5.522e-01           0.079           0.078           0.994       3.553e-02         -0.4813
  86       1.285e+01      -1.360e+01       5.372e-01           0.131           0.116           0.985       3.267e-02         -0.3860
  87       1.297e+01      -1.360e+01       5.170e-01           0.189           0.155           0.970       2.801e-02         -0.2688
  88       1.308e+01      -1.360e+01       4.948e-01           0.240           0.189           0.952       2.162e-02         -0.1127
  89       1.315e+01      -1.360e+01       4.757e-01           0.278           0.214           0.936       1.372e-02          0.0990
  90       1.318e+01      -1.360e+01       4.646e-01           0.303           0.229           0.925       4.717e-03          0.2401
Strip 4
  91       1.300e+01      -1.332e+01       4.502e-01           0.080           0.014          -0.997       6.453e-03         -0.0513
  92       1.296e+01      -1.332e+01       4.546e-01          -0.174          -0.149          -0.973       1.934e-02          0.1764
  93       1.289e+01      -1.332e+01       4.616e-01          -0.040          -0.062          -0.997       3.033e-02          0.2604
  94       1.278e+01      -1.332e+01       4.560e-01           0.122           0.047          -0.991       4.033e-02          0.2352
  95       1.265e+01      -1.332e+01       4.331e-01           0.207           0.107          -0.972       4.874e-02          0.1610
  96       1.250e+01      -1.332e+01       4.028e-01           0.184           0.090          -0.979       5.308e-02          0.0729
  97       1.234e+01      -1.332e+01       3.806e-01           0.089           0.019          -0.996       5.362e-02          0.0518
  98       1.218e+01      -1.332e+01       3.725e-01           0.010          -0.043          -0.999       5.180e-02          0.1217
  99       1.203e+01      -1.332e+01       3.750e-01          -0.045          -0.087          -0.995       4.736e-02          0.2331
 100       1.189e+01      -1.332e+01       3.843e-01          -0.098          -0.131          -0.987       4.033e-02          0.3652
 101       1.179e+01      -1.332e+01       3.986e-01          -0.175          -0.194          -0.965       3.122e-02          0.4980
 102       1.171e+01      -1.332e+01       4.185e-01          -0.354          -0.345          -0.869       2.151e-02          0.3667
 103       1.167e+01      -1.332e+01       4.473e-01          -0.691          -0.618          -0.375       1.633e-02         -1.0001
 104       1.167e+01      -1.332e+01       4.820e-01          -0.695          -0.594           0.406       1.658e-02         -3.5548
 105       1.171e+01      -1.332e+01       5.113e-01          -0.358          -0.287           0.889       2.148e-02         -4.3518
 106       1.179e+01      -1.332e+01       5.314e-01          -0.177          -0.129           0.976       3.116e-02         -2.3282
 107       1.189e+01      -1.331e+01       5.458e-01          -0.096          -0.060           0.994       4.023e-02         -1.4783
 108       1.203e+01      -1.331e+01       5.549e-01          -0.044          -0.017           0.999       4.727e-02         -1.0699
 109       1.218e+01      -1.331e+01       5.583e-01          -0.002           0.017           1.000       5.173e-02         -0.8227
 110       1.234e+01      -1.331e+01       5.555e-01           0.036           0.046           0.998       5.332e-02         -0.6537
 111       1.250e+01      -1.331e+01       5.464e-01           0.079           0.078           0.994       5.195e-02         -0.5238
 112       1.265e+01      -1.332e+01       5.306e-01           0.131           0.116           0.985       4.777e-02         -0.3977
 113       1.278e+01      -1.332e+01       5.093e-01           0.189           0.155           0.970       4.096e-02         -0.2504
 114       1.289e+01      -1.332e+01       4.859e-01           0.240           0.189           0.952       3.162e-02         -0.0782
 115       1.296e+01      -1.332e+01       4.659e-01           0.278           0.214           0.936       2.006e-02          0.1341
 116       1.300e+01      -1.332e+01       4.542e-01           0.303           0.229           0.925       6.899e-03          0.2716
Strip 5
 117       1.276e+01      -1.294e+01       4.363e-01           0.080           0.014          -0.997       8.752e-03         -0.0335
 118       1.272e+01      -1.294e+01       4.409e-01          -0.174          -0.149          -0.973       2.624e-02          0.2129
 119       1.264e+01      -1.294e+01       4.483e-01          -0.040          -0.062          -0.997       4.113e-02          0.3076
 120       1.253e+01      -1.294e+01       4.423e-01           0.122           0.047          -0.991       5.468e-02          0.2854
 121       1.239e+01      -1.295e+01       4.180e-01           0.208           0.107          -0.972       6.608e-02          0.2106
 122       1.222e+01      -1.295e+01       3.857e-01           0.184           0.090          -0.979       7.197e-02          0.1219
 123       1.205e+01      -1.295e+01       3.621e-01           0.089           0.019          -0.996       7.272e-02          0.1024
 124       1.188e+01      -1.295e+01       3.535e-01           0.010          -0.043          -0.999       7.026e-02          0.1718
 125       1.172e+01      -1.295e+01       3.562e-01          -0.045          -0.087          -0.995       6.424e-02          0.2779
 126       1.158e+01      -1.295e+01       3.660e-01          -0.098          -0.130          -0.987       5.471e-02          0.4012
 127       1.147e+01      -1.295e+01       3.813e-01          -0.175          -0.194          -0.965       4.235e-02          0.5218
 128       1.139e+01      -1.295e+01       4.025e-01          -0.354          -0.344          -0.870       2.919e-02          0.3561
 129       1.135e+01      -1.294e+01       4.332e-01          -0.690          -0.618          -0.376       2.216e-02         -1.0771
 130       1.135e+01      -1.294e+01       4.701e-01          -0.695          -0.595           0.404       2.247e-02         -3.7041
 131       1.139e+01      -1.294e+01       5.013e-01          -0.358          -0.287           0.889       2.912e-02         -4.5034
 132       1.147e+01      -1.294e+01       5.227e-01          -0.177          -0.129           0.976       4.225e-02         -2.4144
 133       1.158e+01      -1.294e+01       5.380e-01          -0.096          -0.060           0.994       5.455e-02         -1.5448
 134       1.172e+01      -1.294e+01       5.477e-01          -0.044          -0.017           0.999       6.411e-02         -1.1298
 135       1.188e+01      -1.294e+01       5.513e-01          -0.002           0.017           1.000       7.016e-02         -0.8797
 136       1.205e+01      -1.294e+01       5.484e-01           0.036           0.046           0.998       7.232e-02         -0.7067
 137       1.222e+01      -1.294e+01       5.386e-01           0.079           0.078           0.994       7.048e-02         -0.5689
 138       1.239e+01      -1.294e+01       5.218e-01           0.131           0.116           0.985       6.481e-02         -0.4296
 139       1.253e+01      -1.294e+01       4.991e-01           0.189           0.155           0.970       5.558e-02         -0.2675
 140       1.264e+01      -1.294e+01       4.743e-01           0.239           0.189           0.952       4.290e-02         -0.0861
 141       1.272e+01      -1.294e+01       4.529e-01           0.278           0.214           0.936       2.722e-02          0.1301
 142       1.276e+01      -1.294e+01       4.405e-01           0.303           0.229           0.925       9.361e-03          0.2680
Strip 6
 143       1.246e+01      -1.248e+01       4.190e-01           0.080           0.014          -0.997       1.137e-02         -0.0261
 144       1.242e+01      -1.248e+01       4.239e-01          -0.174          -0.149          -0.974       3.410e-02          0.2294
 145       1.233e+01      -1.248e+01       4.319e-01          -0.040          -0.062          -0.997       5.344e-02          0.3297
 146       1.221e+01      -1.248e+01       4.255e-01           0.122           0.047          -0.991       7.102e-02          0.3098
 147       1.206e+01      -1.248e+01       3.993e-01           0.208           0.107          -0.972       8.581e-02          0.2359
 148       1.189e+01      -1.248e+01       3.646e-01           0.184           0.090          -0.979       9.345e-02          0.1467
 149       1.170e+01      -1.249e+01       3.392e-01           0.090           0.019          -0.996       9.444e-02          0.1263
 150       1.152e+01      -1.249e+01       3.300e-01           0.010          -0.043          -0.999       9.127e-02          0.1937
 151       1.135e+01      -1.249e+01       3.328e-01          -0.045          -0.087          -0.995       8.346e-02          0.2965
 152       1.120e+01      -1.249e+01       3.435e-01          -0.098          -0.130          -0.987       7.109e-02          0.4156
 153       1.107e+01      -1.248e+01       3.599e-01          -0.175          -0.194          -0.965       5.504e-02          0.5314
 154       1.099e+01      -1.248e+01       3.827e-01          -0.354          -0.344          -0.870       3.795e-02          0.3558
 155       1.094e+01      -1.248e+01       4.156e-01          -0.690          -0.617          -0.378       2.881e-02         -1.0935
 156       1.094e+01      -1.248e+01       4.554e-01          -0.695          -0.595           0.403       2.917e-02         -3.7478
 157       1.099e+01      -1.248e+01       4.889e-01          -0.358          -0.287           0.888       3.779e-02         -4.5540
 158       1.107e+01      -1.248e+01       5.119e-01          -0.178          -0.129           0.976       5.486e-02         -2.4450
 159       1.120e+01      -1.248e+01       5.283e-01          -0.096          -0.060           0.994       7.085e-02         -1.5706
 160       1.135e+01      -1.248e+01       5.387e-01          -0.044          -0.017           0.999       8.327e-02         -1.1547
 161       1.152e+01      -1.248e+01       5.426e-01          -0.002           0.017           1.000       9.114e-02         -0.9049
 162       1.170e+01      -1.248e+01       5.395e-01           0.036           0.046           0.998       9.395e-02         -0.7320
 163       1.189e+01      -1.248e+01       5.290e-01           0.079           0.078           0.994       9.156e-02         -0.5925
 164       1.206e+01      -1.248e+01       5.110e-01           0.131           0.115           0.985       8.421e-02         -0.4483
 165       1.221e+01      -1.248e+01       4.866e-01           0.189           0.155           0.970       7.222e-02         -0.2800
 166       1.233e+01      -1.248e+01       4.598e-01           0.239           0.189           0.952       5.576e-02         -0.0944
 167       1.242e+01      -1.248e+01       4.369e-01           0.278           0.213           0.937       3.537e-02          0.1245
 168       1.246e+01      -1.248e+01       4.235e-01           0.303           0.229           0.925       1.217e-02          0.2631
Strip 7
 169       1.211e+01      -1.194e+01       3.985e-01           0.080           0.014          -0.997       1.434e-02         -0.0226
 170       1.206e+01      -1.194e+01       4.039e-01          -0.174          -0.149          -0.974       4.304e-02          0.2372
 171       1.197e+01      -1.194e+01       4.125e-01          -0.040          -0.062          -0.997       6.744e-02          0.3401
 172       1.184e+01      -1.194e+01       4.056e-01           0.122           0.047          -0.991       8.960e-02          0.3214
 173       1.167e+01      -1.194e+01       3.772e-01           0.208           0.107          -0.972       1.082e-01          0.2475
 174       1.149e+01      -1.194e+01       3.396e-01           0.184           0.090          -0.979       1.179e-01          0.1573
 175       1.129e+01      -1.194e+01       3.121e-01           0.090           0.019          -0.996       1.192e-01          0.1355
 176       1.109e+01      -1.194e+01       3.021e-01           0.010          -0.043          -0.999       1.152e-01          0.2014
 177       1.090e+01      -1.194e+01       3.052e-01          -0.045          -0.087          -0.995       1.053e-01          0.3024
 178       1.074e+01      -1.194e+01       3.167e-01          -0.098          -0.130          -0.987       8.973e-02          0.4196
 179       1.061e+01      -1.194e+01       3.345e-01          -0.175          -0.194          -0.965       6.949e-02          0.5347
 180       1.051e+01      -1.194e+01       3.592e-01          -0.353          -0.344          -0.870       4.792e-02          0.3656
 181       1.047e+01      -1.194e+01       3.949e-01          -0.689          -0.617          -0.379       3.639e-02         -1.0656
 182       1.047e+01      -1.194e+01       4.379e-01          -0.696          -0.596           0.401       3.679e-02         -3.7168
 183       1.051e+01      -1.194e+01       4.742e-01          -0.359          -0.287           0.888       4.766e-02         -4.5347
 184       1.061e+01      -1.193e+01       4.991e-01          -0.178          -0.129           0.976       6.920e-02         -2.4389
 185       1.074e+01      -1.193e+01       5.169e-01          -0.096          -0.060           0.994       8.939e-02         -1.5710
 186       1.090e+01      -1.193e+01       5.282e-01          -0.044          -0.017           0.999       1.051e-01         -1.1586
 187       1.109e+01      -1.193e+01       5.324e-01          -0.002           0.017           1.000       1.150e-01         -0.9112
 188       1.129e+01      -1.193e+01       5.290e-01           0.036           0.046           0.998       1.186e-01         -0.7400
 189       1.149e+01      -1.193e+01       5.177e-01           0.079           0.078           0.994       1.156e-01         -0.6007
 190       1.167e+01      -1.193e+01       4.981e-01           0.131           0.115           0.985       1.063e-01         -0.4551
 191       1.184e+01      -1.194e+01       4.717e-01           0.189           0.155           0.970       9.118e-02         -0.2851
 192       1.197e+01      -1.194e+01       4.427e-01           0.239           0.189           0.952       7.040e-02         -0.0982
 193       1.206e+01      -1.194e+01       4.179e-01           0.278           0.213           0.937       4.467e-02          0.1216
 194       1.211e+01      -1.194e+01       4.034e-01           0.302           0.229           0.925       1.536e-02          0.2603
Strip 8
 195       1.171e+01      -1.131e+01       3.749e-01           0.080           0.014          -0.997       1.771e-02         -0.0211
 196       1.166e+01      -1.131e+01       3.808e-01          -0.174          -0.149          -0.974       5.317e-02          0.2409
 197       1.156e+01      -1.131e+01       3.902e-01          -0.040          -0.062          -0.997       8.329e-02          0.3450
 198       1.141e+01      -1.131e+01       3.826e-01           0.122           0.047          -0.991       1.106e-01          0.3268
 199       1.123e+01      -1.131e+01       3.518e-01           0.208           0.107          -0.972       1.336e-01          0.2525
 200       1.103e+01      -1.131e+01       3.109e-01           0.185           0.090          -0.979       1.455e-01          0.1606
 201       1.081e+01      -1.131e+01       2.810e-01           0.090           0.019          -0.996       1.471e-01          0.1371
 202       1.060e+01      -1.131e+01       2.701e-01           0.010          -0.043          -0.999       1.422e-01          0.2018
 203       1.039e+01      -1.131e+01       2.735e-01          -0.045          -0.087          -0.995       1.301e-01          0.3016
 204       1.021e+01      -1.131e+01       2.860e-01          -0.098          -0.130          -0.987       1.108e-01          0.4180
 205       1.007e+01      -1.131e+01       3.053e-01          -0.175          -0.194          -0.965       8.585e-02          0.5347
 206       9.969e+00      -1.131e+01       3.322e-01          -0.353          -0.344          -0.870       5.923e-02          0.3825
 207       9.917e+00      -1.131e+01       3.710e-01          -0.689          -0.617          -0.381       4.496e-02         -1.0081
 208       9.917e+00      -1.131e+01       4.178e-01          -0.696          -0.596           0.400       4.540e-02         -3.6347
 209       9.969e+00      -1.131e+01       4.573e-01          -0.359          -0.288           0.888       5.881e-02         -4.4677
 210       1.007e+01      -1.131e+01       4.844e-01          -0.178          -0.129           0.976       8.542e-02         -2.4091
 211       1.021e+01      -1.131e+01       5.038e-01          -0.096          -0.060           0.994       1.104e-01         -1.5554
 212       1.039e+01      -1.131e+01       5.160e-01          -0.044          -0.017           0.999       1.297e-01         -1.1499
 213       1.060e+01      -1.131e+01       5.206e-01          -0.002           0.017           1.000       1.420e-01         -0.9067
 214       1.081e+01      -1.131e+01       5.170e-01           0.036           0.046           0.998       1.464e-01         -0.7382
 215       1.103e+01      -1.131e+01       5.046e-01           0.079           0.078           0.994       1.427e-01         -0.6005
 216       1.123e+01      -1.131e+01       4.833e-01           0.131           0.115           0.985       1.313e-01         -0.4554
 217       1.141e+01      -1.131e+01       4.546e-01           0.189           0.155           0.970       1.126e-01         -0.2856
 218       1.156e+01      -1.131e+01       4.231e-01           0.239           0.189           0.953       8.697e-02         -0.0991
 219       1.166e+01      -1.131e+01       3.960e-01           0.278           0.213           0.937       5.518e-02          0.1204
 220       1.171e+01      -1.131e+01       3.803e-01           0.302           0.229           0.925       1.898e-02          0.2588
Strip 9
 221       1.125e+01      -1.060e+01       3.485e-01           0.080           0.014          -0.997       2.148e-02         -0.0208
 222       1.120e+01      -1.060e+01       3.549e-01          -0.174          -0.149          -0.974       6.452e-02          0.2426
 223       1.109e+01      -1.060e+01       3.651e-01          -0.040          -0.062          -0.997       1.011e-01          0.3474
 224       1.093e+01      -1.060e+01       3.569e-01           0.122           0.047          -0.991       1.342e-01          0.3293
 225       1.073e+01      -1.060e+01       3.232e-01           0.208           0.107          -0.972       1.620e-01          0.2541
 226       1.051e+01      -1.060e+01       2.787e-01           0.185           0.090          -0.979       1.765e-01          0.1603
 227       1.028e+01      -1.060e+01       2.460e-01           0.090           0.019          -0.996       1.785e-01          0.1348
 228       1.004e+01      -1.060e+01       2.341e-01           0.010          -0.043          -0.999       1.725e-01          0.1980
 229       9.820e+00      -1.060e+01       2.378e-01          -0.045          -0.087          -0.995       1.578e-01          0.2969
 230       9.625e+00      -1.060e+01       2.514e-01          -0.098          -0.130          -0.987       1.345e-01          0.4130
 231       9.468e+00      -1.060e+01       2.726e-01          -0.175          -0.194          -0.965       1.042e-01          0.5324
 232       9.358e+00      -1.060e+01       3.018e-01          -0.353          -0.343          -0.870       7.190e-02          0.4037
 233       9.301e+00      -1.060e+01       3.442e-01          -0.689          -0.616          -0.382       5.458e-02         -0.9312
 234       9.301e+00      -1.060e+01       3.953e-01          -0.697          -0.596           0.399       5.504e-02         -3.5178
 235       9.358e+00      -1.060e+01       4.383e-01          -0.359          -0.288           0.888       7.129e-02         -4.3679
 236       9.468e+00      -1.060e+01       4.679e-01          -0.178          -0.129           0.976       1.036e-01         -2.3631
 237       9.625e+00      -1.060e+01       4.890e-01          -0.096          -0.060           0.994       1.339e-01         -1.5296
 238       9.820e+00      -1.060e+01       5.024e-01          -0.044          -0.017           0.999       1.574e-01         -1.1335
 239       1.004e+01      -1.060e+01       5.074e-01          -0.002           0.017           1.000       1.723e-01         -0.8958
 240       1.028e+01      -1.060e+01       5.034e-01           0.036           0.046           0.998       1.777e-01         -0.7309
 241       1.051e+01      -1.060e+01       4.899e-01           0.079           0.078           0.994       1.732e-01         -0.5956
 242       1.073e+01      -1.060e+01       4.667e-01           0.131           0.115           0.985       1.593e-01         -0.4520
 243       1.093e+01      -1.060e+01       4.354e-01           0.189           0.155           0.970       1.367e-01         -0.2836
 244       1.109e+01      -1.060e+01       4.010e-01           0.239           0.188           0.953       1.055e-01         -0.0984
 245       1.120e+01      -1.060e+01       3.715e-01           0.278           0.213           0.937       6.698e-02          0.1199
 246       1.125e+01      -1.060e+01       3.543e-01           0.302           0.229           0.925       2.304e-02          0.2576
Strip 10
 247       1.075e+01      -9.825e+00       3.193e-01           0.080           0.014          -0.997       2.565e-02         -0.0212
 248       1.069e+01      -9.825e+00       3.263e-01          -0.173          -0.149          -0.974       7.709e-02          0.2433
 249       1.057e+01      -9.825e+00       3.375e-01          -0.040          -0.062          -0.997       1.207e-01          0.3487
 250       1.040e+01      -9.825e+00       3.285e-01           0.122           0.047          -0.991       1.602e-01          0.3304
 251       1.019e+01      -9.826e+00       2.917e-01           0.208           0.107          -0.972       1.935e-01          0.2541
 252       9.944e+00      -9.826e+00       2.431e-01           0.185           0.090          -0.979       2.107e-01          0.1580
 253       9.687e+00      -9.827e+00       2.074e-01           0.090           0.019          -0.996       2.131e-01          0.1300
 254       9.430e+00      -9.827e+00       1.945e-01           0.010          -0.043          -0.999       2.061e-01          0.1917
 255       9.188e+00      -9.827e+00       1.985e-01          -0.045          -0.087          -0.995       1.885e-01          0.2896
 256       8.975e+00      -9.827e+00       2.134e-01          -0.098          -0.130          -0.987       1.607e-01          0.4055
 257       8.803e+00      -9.826e+00       2.364e-01          -0.174          -0.194          -0.965       1.245e-01          0.5283
 258       8.683e+00      -9.826e+00       2.684e-01          -0.353          -0.343          -0.871       8.594e-02          0.4272
 259       8.621e+00      -9.825e+00       3.146e-01          -0.688          -0.616          -0.383       6.523e-02         -0.8413
 260       8.621e+00      -9.825e+00       3.704e-01          -0.697          -0.597           0.397       6.570e-02         -3.3762
 261       8.683e+00      -9.824e+00       4.174e-01          -0.360          -0.288           0.888       8.509e-02         -4.2444
 262       8.803e+00      -9.824e+00       4.497e-01          -0.178          -0.129           0.976       1.237e-01         -2.3057
 263       8.975e+00      -9.823e+00       4.728e-01          -0.096          -0.060           0.994       1.599e-01         -1.4966
 264       9.188e+00      -9.823e+00       4.874e-01          -0.044          -0.017           0.999       1.880e-01         -1.1117
 265       9.430e+00      -9.823e+00       4.928e-01          -0.002           0.017           1.000       2.058e-01         -0.8806
 266       9.687e+00      -9.823e+00       4.885e-01           0.036           0.046           0.998       2.122e-01         -0.7200
 267       9.944e+00      -9.823e+00       4.738e-01           0.079           0.078           0.994       2.069e-01         -0.5877
 268       1.019e+01      -9.824e+00       4.484e-01           0.131           0.115           0.985       1.903e-01         -0.4466
 269       1.040e+01      -9.824e+00       4.142e-01           0.189           0.155           0.970       1.633e-01         -0.2803
 270       1.057e+01      -9.825e+00       3.767e-01           0.239           0.188           0.953       1.261e-01         -0.0968
 271       1.069e+01      -9.825e+00       3.445e-01           0.278           0.213           0.937       8.003e-02          0.1199
 272       1.075e+01      -9.825e+00       3.257e-01           0.302           0.229           0.926       2.753e-02          0.2566
Strip 11
 273       1.021e+01      -8.980e+00       2.877e-01           0.080           0.014          -0.997       3.021e-02         -0.0219
 274       1.014e+01      -8.980e+00       2.953e-01          -0.173          -0.149          -0.974       9.080e-02          0.2437
 275       1.001e+01      -8.980e+00       3.075e-01          -0.040          -0.062          -0.997       1.422e-01          0.3494
 276       9.823e+00      -8.980e+00       2.977e-01           0.122           0.047          -0.991       1.887e-01          0.3307
 277       9.591e+00      -8.981e+00       2.575e-01           0.208           0.107          -0.972       2.278e-01          0.2533
 278       9.326e+00      -8.981e+00       2.044e-01           0.185           0.090          -0.979       2.481e-01          0.1545
 279       9.046e+00      -8.982e+00       1.655e-01           0.090           0.019          -0.996       2.509e-01          0.1236
 280       8.765e+00      -8.982e+00       1.514e-01           0.010          -0.043          -0.999       2.427e-01          0.1836
 281       8.501e+00      -8.982e+00       1.558e-01          -0.045          -0.087          -0.995       2.221e-01          0.2804
 282       8.269e+00      -8.982e+00       1.720e-01          -0.098          -0.130          -0.987       1.892e-01          0.3960
 283       8.081e+00      -8.981e+00       1.972e-01          -0.174          -0.194          -0.965       1.467e-01          0.5225
 284       7.950e+00      -8.981e+00       2.321e-01          -0.352          -0.343          -0.871       1.013e-01          0.4517
 285       7.882e+00      -8.980e+00       2.825e-01          -0.688          -0.616          -0.385       7.686e-02         -0.7423
 286       7.882e+00      -8.980e+00       3.434e-01          -0.698          -0.597           0.396       7.734e-02         -3.2156
 287       7.950e+00      -8.979e+00       3.947e-01          -0.360          -0.288           0.887       1.001e-01         -4.1021
 288       8.081e+00      -8.979e+00       4.300e-01          -0.178          -0.129           0.976       1.456e-01         -2.2391
 289       8.269e+00      -8.978e+00       4.551e-01          -0.096          -0.060           0.994       1.882e-01         -1.4580
 290       8.501e+00      -8.978e+00       4.711e-01          -0.044          -0.017           0.999       2.213e-01         -1.0860
 291       8.765e+00      -8.978e+00       4.770e-01          -0.002           0.017           1.000       2.424e-01         -0.8624
 292       9.046e+00      -8.978e+00       4.722e-01           0.036           0.046           0.998       2.499e-01         -0.7068
 293       9.326e+00      -8.978e+00       4.562e-01           0.079           0.078           0.994       2.437e-01         -0.5781
 294       9.591e+00      -8.979e+00       4.286e-01           0.131           0.115           0.985       2.242e-01         -0.4397
 295       9.823e+00      -8.979e+00       3.912e-01           0.189           0.155           0.970       1.924e-01         -0.2760
 296       1.001e+01      -8.980e+00       3.502e-01           0.239           0.188           0.953       1.486e-01         -0.0948
 297       1.014e+01      -8.980e+00       3.151e-01           0.277           0.213           0.937       9.428e-02          0.1200
 298       1.021e+01      -8.980e+00       2.946e-01           0.302           0.228           0.926       3.243e-02          0.2557
Strip 12
 299       9.626e+00      -8.074e+00       2.537e-01           0.080           0.014          -0.997       3.510e-02         -0.0230
 300       9.552e+00      -8.074e+00       2.620e-01          -0.173          -0.149          -0.974       1.056e-01          0.2437
 301       9.409e+00      -8.074e+00       2.753e-01          -0.040          -0.062          -0.997       1.652e-01          0.3498
 302       9.205e+00      -8.074e+00       2.646e-01           0.122           0.047          -0.991       2.192e-01          0.3308
 303       8.952e+00      -8.074e+00       2.209e-01           0.208           0.107          -0.972       2.646e-01          0.2518
 304       8.664e+00      -8.075e+00       1.630e-01           0.185           0.090          -0.979       2.883e-01          0.1500
 305       8.358e+00      -8.075e+00       1.206e-01           0.090           0.019          -0.996       2.916e-01          0.1160
 306       8.052e+00      -8.076e+00       1.052e-01           0.010          -0.043          -0.999       2.820e-01          0.1739
 307       7.765e+00      -8.075e+00       1.099e-01          -0.045          -0.087          -0.995       2.581e-01          0.2695
 308       7.511e+00      -8.075e+00       1.277e-01          -0.098          -0.130          -0.987       2.200e-01          0.3847
 309       7.307e+00      -8.075e+00       1.551e-01          -0.174          -0.194          -0.965       1.705e-01          0.5148
 310       7.164e+00      -8.075e+00       1.931e-01          -0.352          -0.343          -0.871       1.178e-01          0.4761
 311       7.090e+00      -8.074e+00       2.481e-01          -0.687          -0.615          -0.386       8.937e-02         -0.6366
 312       7.090e+00      -8.074e+00       3.144e-01          -0.698          -0.597           0.395       8.984e-02         -3.0386
 313       7.164e+00      -8.073e+00       3.703e-01          -0.360          -0.288           0.887       1.163e-01         -3.9429
 314       7.307e+00      -8.073e+00       4.088e-01          -0.178          -0.129           0.976       1.692e-01         -2.1648
 315       7.511e+00      -8.072e+00       4.362e-01          -0.096          -0.060           0.994       2.187e-01         -1.4146
 316       7.765e+00      -8.072e+00       4.535e-01          -0.045          -0.017           0.999       2.572e-01         -1.0570
 317       8.052e+00      -8.072e+00       4.600e-01          -0.002           0.017           1.000       2.817e-01         -0.8418
 318       8.358e+00      -8.072e+00       4.548e-01           0.036           0.046           0.998       2.905e-01         -0.6918
 319       8.664e+00      -8.072e+00       4.374e-01           0.079           0.078           0.994       2.832e-01         -0.5669
 320       8.952e+00      -8.073e+00       4.072e-01           0.131           0.115           0.985       2.606e-01         -0.4318
 321       9.205e+00      -8.073e+00       3.665e-01           0.189           0.155           0.970       2.236e-01         -0.2712
 322       9.409e+00      -8.073e+00       3.219e-01           0.239           0.188           0.953       1.727e-01         -0.0925
 323       9.552e+00      -8.074e+00       2.836e-01           0.277           0.213           0.937       1.096e-01          0.1201
 324       9.626e+00      -8.074e+00       2.613e-01           0.302           0.228           0.926       3.771e-02          0.2546
Strip 13
 325       9.007e+00      -7.113e+00       2.176e-01           0.080           0.014          -0.997       4.029e-02         -0.0244
 326       8.927e+00      -7.113e+00       2.266e-01          -0.173          -0.149          -0.974       1.212e-01          0.2436
 327       8.771e+00      -7.113e+00       2.412e-01          -0.040          -0.062          -0.997       1.896e-01          0.3501
 328       8.549e+00      -7.113e+00       2.295e-01           0.122           0.047          -0.991       2.516e-01          0.3307
 329       8.274e+00      -7.113e+00       1.820e-01           0.208           0.107          -0.972       3.036e-01          0.2500
 330       7.961e+00      -7.113e+00       1.190e-01           0.185           0.090          -0.979       3.308e-01          0.1448
 331       7.628e+00      -7.114e+00       7.293e-02           0.090           0.019          -0.996       3.346e-01          0.1072
 332       7.296e+00      -7.114e+00       5.618e-02           0.010          -0.043          -0.999       3.237e-01          0.1628
 333       6.983e+00      -7.114e+00       6.134e-02          -0.045          -0.087          -0.995       2.962e-01          0.2569
 334       6.707e+00      -7.114e+00       8.062e-02          -0.098          -0.130          -0.987       2.525e-01          0.3715
 335       6.485e+00      -7.114e+00       1.104e-01          -0.174          -0.194          -0.965       1.957e-01          0.5051
 336       6.330e+00      -7.113e+00       1.518e-01          -0.352          -0.343          -0.871       1.352e-01          0.4997
 337       6.250e+00      -7.113e+00       2.116e-01          -0.687          -0.615          -0.387       1.026e-01         -0.5249
 338       6.250e+00      -7.112e+00       2.837e-01          -0.698          -0.598           0.394       1.031e-01         -2.8465
 339       6.330e+00      -7.112e+00       3.445e-01          -0.360          -0.289           0.887       1.334e-01         -3.7679
 340       6.485e+00      -7.111e+00       3.863e-01          -0.178          -0.129           0.975       1.941e-01         -2.0826
 341       6.707e+00      -7.111e+00       4.161e-01          -0.097          -0.060           0.994       2.510e-01         -1.3666
 342       6.983e+00      -7.111e+00       4.350e-01          -0.045          -0.017           0.999       2.952e-01         -1.0249
 343       7.296e+00      -7.111e+00       4.420e-01          -0.002           0.017           1.000       3.233e-01         -0.8190
 344       7.628e+00      -7.111e+00       4.364e-01           0.036           0.046           0.998       3.334e-01         -0.6750
 345       7.961e+00      -7.111e+00       4.174e-01           0.079           0.078           0.994       3.251e-01         -0.5546
 346       8.274e+00      -7.111e+00       3.846e-01           0.131           0.115           0.985       2.992e-01         -0.4232
 347       8.549e+00      -7.112e+00       3.403e-01           0.189           0.155           0.970       2.567e-01         -0.2657
 348       8.771e+00      -7.112e+00       2.918e-01           0.239           0.188           0.953       1.983e-01         -0.0900
 349       8.927e+00      -7.112e+00       2.502e-01           0.277           0.213           0.937       1.258e-01          0.1201
 350       9.007e+00      -7.113e+00       2.259e-01           0.302           0.228           0.926       4.329e-02          0.2532
Strip 14
 351       8.357e+00      -6.103e+00       1.798e-01           0.080           0.014          -0.997       4.568e-02         -0.0260
 352       8.270e+00      -6.103e+00       1.895e-01          -0.173          -0.149          -0.974       1.374e-01          0.2435
 353       8.101e+00      -6.103e+00       2.053e-01          -0.040          -0.062          -0.997       2.151e-01          0.3505
 354       7.860e+00      -6.103e+00       1.926e-01           0.122           0.047          -0.991       2.852e-01          0.3306
 355       7.562e+00      -6.103e+00       1.411e-01           0.208           0.107          -0.972       3.443e-01          0.2480
 356       7.222e+00      -6.103e+00       7.284e-02           0.185           0.090          -0.979       3.750e-01          0.1389
 357       6.862e+00      -6.104e+00       2.285e-02           0.090           0.019          -0.996       3.794e-01          0.0970
 358       6.501e+00      -6.104e+00       4.685e-03           0.010          -0.043          -0.999       3.671e-01          0.1501
 359       6.162e+00      -6.104e+00       1.028e-02          -0.045          -0.087          -0.995       3.360e-01          0.2424
 360       5.863e+00      -6.104e+00       3.118e-02          -0.098          -0.130          -0.987       2.864e-01          0.3561
 361       5.622e+00      -6.103e+00       6.351e-02          -0.174          -0.194          -0.965       2.220e-01          0.4926
 362       5.454e+00      -6.103e+00       1.084e-01          -0.352          -0.343          -0.871       1.534e-01          0.5216
 363       5.367e+00      -6.103e+00       1.732e-01          -0.687          -0.615          -0.387       1.164e-01         -0.4076
 364       5.367e+00      -6.102e+00       2.514e-01          -0.698          -0.598           0.393       1.168e-01         -2.6380
 365       5.454e+00      -6.102e+00       3.173e-01          -0.360          -0.289           0.887       1.513e-01         -3.5755
 366       5.622e+00      -6.102e+00       3.627e-01          -0.178          -0.129           0.975       2.201e-01         -1.9922
 367       5.863e+00      -6.101e+00       3.949e-01          -0.097          -0.060           0.994       2.846e-01         -1.3139
 368       6.162e+00      -6.101e+00       4.155e-01          -0.045          -0.017           0.999       3.347e-01         -0.9896
 369       6.501e+00      -6.101e+00       4.231e-01          -0.002           0.017           1.000       3.666e-01         -0.7940
 370       6.862e+00      -6.101e+00       4.170e-01           0.036           0.046           0.998       3.781e-01         -0.6568
 371       7.222e+00      -6.101e+00       3.964e-01           0.079           0.078           0.994       3.687e-01         -0.5412
 372       7.562e+00      -6.102e+00       3.608e-01           0.131           0.115           0.985       3.393e-01         -0.4137
 373       7.860e+00      -6.102e+00       3.128e-01           0.189           0.155           0.970       2.912e-01         -0.2599
 374       8.101e+00      -6.102e+00       2.602e-01           0.239           0.188           0.953       2.249e-01         -0.0873
 375       8.270e+00      -6.102e+00       2.150e-01           0.277           0.213           0.937       1.427e-01          0.1201
 376       8.357e+00      -6.103e+00       1.887e-01           0.302           0.228           0.926       4.911e-02          0.2517
Strip 15
 377       7.680e+00      -5.051e+00       1.403e-01           0.080           0.014          -0.997       5.120e-02         -0.0279
 378       7.586e+00      -5.051e+00       1.509e-01          -0.173          -0.148          -0.974       1.541e-01          0.2433
 379       7.403e+00      -5.051e+00       1.679e-01          -0.040          -0.062          -0.997       2.411e-01          0.3509
 380       7.143e+00      -5.051e+00       1.542e-01           0.122           0.047          -0.991       3.197e-01          0.3305
 381       6.820e+00      -5.051e+00       9.851e-02           0.208           0.107          -0.972       3.858e-01          0.2458
 382       6.453e+00      -5.052e+00       2.475e-02           0.185           0.090          -0.979       4.203e-01          0.1322
 383       6.064e+00      -5.052e+00      -2.930e-02           0.090           0.019          -0.996       4.253e-01          0.0854
 384       5.674e+00      -5.052e+00      -4.894e-02           0.010          -0.043          -0.999       4.115e-01          0.1355
 385       5.307e+00      -5.052e+00      -4.289e-02          -0.045          -0.087          -0.995       3.766e-01          0.2257
 386       4.984e+00      -5.052e+00      -2.029e-02          -0.098          -0.130          -0.987       3.211e-01          0.3379
 387       4.724e+00      -5.052e+00       1.466e-02          -0.174          -0.194          -0.965       2.489e-01          0.4767
 388       4.542e+00      -5.051e+00       6.314e-02          -0.352          -0.343          -0.871       1.720e-01          0.5409
 389       4.448e+00      -5.051e+00       1.332e-01          -0.687          -0.615          -0.388       1.305e-01         -0.2837
 390       4.448e+00      -5.051e+00       2.178e-01          -0.699          -0.598           0.393       1.309e-01         -2.4102
 391       4.542e+00      -5.050e+00       2.890e-01          -0.360          -0.289           0.887       1.695e-01         -3.3626
 392       4.724e+00      -5.050e+00       3.381e-01          -0.178          -0.129           0.975       2.466e-01         -1.8920
 393       4.984e+00      -5.050e+00       3.730e-01          -0.097          -0.060           0.994       3.190e-01         -1.2555
 394       5.307e+00      -5.050e+00       3.951e-01          -0.045          -0.017           0.999       3.752e-01         -0.9510
 395       5.674e+00      -5.050e+00       4.034e-01          -0.002           0.017           1.000       4.110e-01         -0.7669
 396       6.064e+00      -5.050e+00       3.968e-01           0.036           0.046           0.998       4.239e-01         -0.6372
 397       6.453e+00      -5.050e+00       3.745e-01           0.079           0.078           0.994       4.133e-01         -0.5269
 398       6.820e+00      -5.050e+00       3.361e-01           0.131           0.115           0.985       3.804e-01         -0.4037
 399       7.143e+00      -5.050e+00       2.841e-01           0.189           0.155           0.970       3.265e-01         -0.2538
 400       7.403e+00      -5.051e+00       2.273e-01           0.239           0.188           0.953       2.522e-01         -0.0847
 401       7.586e+00      -5.051e+00       1.785e-01           0.277           0.213           0.937       1.601e-01          0.1197
 402       7.680e+00      -5.051e+00       1.500e-01           0.302           0.228           0.926       5.506e-02          0.2497
Strip 16
 403       6.980e+00      -3.965e+00       9.962e-02           0.080           0.014          -0.997       5.675e-02         -0.0307
 404       6.879e+00      -3.965e+00       1.110e-01          -0.173          -0.148          -0.974       1.708e-01          0.2431
 405       6.683e+00      -3.965e+00       1.293e-01          -0.040          -0.062          -0.997       2.672e-01          0.3516
 406       6.402e+00      -3.965e+00       1.146e-01           0.122           0.047          -0.991       3.543e-01          0.3307
 407       6.054e+00      -3.965e+00       5.455e-02           0.208           0.107          -0.972       4.276e-01          0.2434
 408       5.659e+00      -3.965e+00      -2.492e-02           0.185           0.090          -0.979       4.658e-01          0.1244
 409       5.239e+00      -3.965e+00      -8.316e-02           0.090           0.019          -0.996       4.714e-01          0.0721
 410       4.819e+00      -3.965e+00      -1.043e-01           0.010          -0.043          -0.999       4.561e-01          0.1185
 411       4.424e+00      -3.965e+00      -9.780e-02          -0.045          -0.087          -0.995       4.175e-01          0.2060
 412       4.076e+00      -3.965e+00      -7.345e-02          -0.098          -0.130          -0.987       3.559e-01          0.3159
 413       3.796e+00      -3.965e+00      -3.579e-02          -0.174          -0.194          -0.965       2.759e-01          0.4558
 414       3.599e+00      -3.965e+00       1.645e-02          -0.352          -0.342          -0.871       1.907e-01          0.5560
 415       3.498e+00      -3.965e+00       9.196e-02          -0.686          -0.615          -0.389       1.447e-01         -0.1513
 416       3.498e+00      -3.964e+00       1.831e-01          -0.699          -0.598           0.392       1.451e-01         -2.1555
 417       3.599e+00      -3.964e+00       2.598e-01          -0.361          -0.289           0.887       1.878e-01         -3.1202
 418       3.796e+00      -3.964e+00       3.127e-01          -0.178          -0.129           0.975       2.733e-01         -1.7780
 419       4.076e+00      -3.964e+00       3.503e-01          -0.097          -0.060           0.994       3.535e-01         -1.1899
 420       4.424e+00      -3.964e+00       3.741e-01          -0.045          -0.017           0.999       4.159e-01         -0.9085
 421       4.819e+00      -3.964e+00       3.831e-01          -0.002           0.017           1.000       4.555e-01         -0.7378
 422       5.239e+00      -3.964e+00       3.759e-01           0.036           0.046           0.998       4.698e-01         -0.6168
 423       5.659e+00      -3.964e+00       3.519e-01           0.079           0.078           0.994       4.582e-01         -0.5125
 424       6.054e+00      -3.964e+00       3.105e-01           0.131           0.115           0.985       4.217e-01         -0.3938
 425       6.402e+00      -3.964e+00       2.545e-01           0.189           0.155           0.970       3.619e-01         -0.2480
 426       6.683e+00      -3.964e+00       1.933e-01           0.239           0.188           0.953       2.796e-01         -0.0824
 427       6.879e+00      -3.965e+00       1.407e-01           0.277           0.213           0.937       1.774e-01          0.1186
 428       6.980e+00      -3.965e+00       1.100e-01           0.301           0.228           0.926       6.104e-02          0.2467
Strip 17
 429       6.263e+00      -2.851e+00       5.789e-02           0.080           0.014          -0.997       6.222e-02         -0.0342
 430       6.155e+00      -2.851e+00       7.010e-02          -0.173          -0.148          -0.974       1.873e-01          0.2428
 431       5.944e+00      -2.851e+00       8.978e-02          -0.040          -0.062          -0.997       2.930e-01          0.3527
 432       5.643e+00      -2.851e+00       7.396e-02           0.122           0.047          -0.991       3.884e-01          0.3313
 433       5.269e+00      -2.852e+00       9.497e-03           0.208           0.108          -0.972       4.687e-01          0.2410
 434       4.845e+00      -2.852e+00      -7.584e-02           0.185           0.090          -0.979       5.106e-01          0.1155
 435       4.394e+00      -2.852e+00      -1.384e-01           0.090           0.019          -0.996       5.167e-01          0.0564
 436       3.944e+00      -2.852e+00      -1.611e-01           0.010          -0.043          -0.999       5.000e-01          0.0984
 437       3.519e+00      -2.852e+00      -1.541e-01          -0.045          -0.087          -0.995       4.577e-01          0.1824
 438       3.146e+00      -2.852e+00      -1.279e-01          -0.098          -0.130          -0.987       3.902e-01          0.2887
 439       2.845e+00      -2.852e+00      -8.751e-02          -0.174          -0.194          -0.965       3.026e-01          0.4278
 440       2.634e+00      -2.852e+00      -3.142e-02          -0.351          -0.342          -0.871       2.092e-01          0.5645
 441       2.525e+00      -2.852e+00       4.966e-02          -0.686          -0.615          -0.389       1.587e-01         -0.0056
 442       2.525e+00      -2.851e+00       1.475e-01          -0.699          -0.599           0.391       1.590e-01         -1.8582
 443       2.634e+00      -2.851e+00       2.299e-01          -0.361          -0.289           0.887       2.058e-01         -2.8292
 444       2.845e+00      -2.851e+00       2.866e-01          -0.178          -0.129           0.975       2.996e-01         -1.6407
 445       3.146e+00      -2.851e+00       3.270e-01          -0.097          -0.060           0.994       3.875e-01         -1.1125
 446       3.519e+00      -2.851e+00       3.526e-01          -0.045          -0.017           0.999       4.559e-01         -0.8605
 447       3.944e+00      -2.851e+00       3.622e-01          -0.002           0.017           1.000       4.994e-01         -0.7074
 448       4.394e+00      -2.851e+00       3.545e-01           0.036           0.046           0.998       5.151e-01         -0.5975
 449       4.845e+00      -2.851e+00       3.288e-01           0.079           0.078           0.994       5.024e-01         -0.5003
 450       5.269e+00      -2.851e+00       2.843e-01           0.131           0.115           0.985       4.624e-01         -0.3863
 451       5.643e+00      -2.851e+00       2.242e-01           0.188           0.155           0.970       3.969e-01         -0.2442
 452       5.944e+00      -2.851e+00       1.585e-01           0.239           0.188           0.953       3.066e-01         -0.0819
 453       6.155e+00      -2.851e+00       1.020e-01           0.277           0.213           0.937       1.946e-01          0.1161
 454       6.263e+00      -2.851e+00       6.906e-02           0.301           0.228           0.926       6.694e-02          0.2425
Strip 18
 455       5.534e+00      -1.719e+00       1.542e-02           0.080           0.014          -0.997       6.748e-02         -0.0390
 456       5.418e+00      -1.719e+00       2.848e-02          -0.173          -0.148          -0.974       2.032e-01          0.2429
 457       5.192e+00      -1.719e+00       4.954e-02          -0.040          -0.062          -0.997       3.178e-01          0.3547
 458       4.870e+00      -1.719e+00       3.262e-02           0.122           0.047          -0.991       4.213e-01          0.3324
 459       4.471e+00      -1.719e+00      -3.635e-02           0.208           0.108          -0.972       5.083e-01          0.2378
 460       4.017e+00      -1.719e+00      -1.276e-01           0.185           0.090          -0.979       5.537e-01          0.1039
 461       3.534e+00      -1.719e+00      -1.945e-01           0.090           0.019          -0.996       5.604e-01          0.0366
 462       3.052e+00      -1.719e+00      -2.188e-01           0.010          -0.043          -0.999       5.424e-01          0.0739
 463       2.598e+00      -1.719e+00      -2.113e-01          -0.045          -0.087          -0.995       4.965e-01          0.1545
 464       2.199e+00      -1.719e+00      -1.834e-01          -0.098          -0.130          -0.987       4.233e-01          0.2566
 465       1.877e+00      -1.719e+00      -1.401e-01          -0.174          -0.194          -0.966       3.282e-01          0.3927
 466       1.651e+00      -1.719e+00      -8.012e-02          -0.351          -0.342          -0.871       2.270e-01          0.5657
 467       1.535e+00      -1.719e+00       6.617e-03          -0.686          -0.614          -0.390       1.722e-01          0.1674
 468       1.535e+00      -1.719e+00       1.113e-01          -0.699          -0.599           0.391       1.724e-01         -1.4814
 469       1.651e+00      -1.718e+00       1.994e-01          -0.361          -0.289           0.887       2.232e-01         -2.4407
 470       1.877e+00      -1.718e+00       2.601e-01          -0.178          -0.129           0.975       3.249e-01         -1.4519
 471       2.199e+00      -1.718e+00       3.033e-01          -0.097          -0.060           0.994       4.203e-01         -1.0079
 472       2.598e+00      -1.718e+00       3.308e-01          -0.045          -0.017           0.999       4.945e-01         -0.8006
 473       3.052e+00      -1.718e+00       3.410e-01          -0.002           0.017           1.000       5.417e-01         -0.6759
 474       3.534e+00      -1.718e+00       3.328e-01           0.036           0.046           0.998       5.588e-01         -0.5843
 475       4.017e+00      -1.718e+00       3.052e-01           0.079           0.078           0.994       5.449e-01         -0.4982
 476       4.471e+00      -1.718e+00       2.577e-01           0.131           0.115           0.985       5.016e-01         -0.3893
 477       4.870e+00      -1.718e+00       1.934e-01           0.188           0.155           0.970       4.305e-01         -0.2485
 478       5.192e+00      -1.719e+00       1.230e-01           0.239           0.188           0.953       3.326e-01         -0.0866
 479       5.418e+00      -1.719e+00       6.261e-02           0.277           0.213           0.937       2.111e-01          0.1108
 480       5.534e+00      -1.719e+00       2.738e-02           0.301           0.228           0.926       7.262e-02          0.2366
Strip 19
 481       4.797e+00      -5.742e-01      -2.748e-02           0.080           0.014          -0.997       7.242e-02         -0.0446
 482       4.673e+00      -5.742e-01      -1.356e-02          -0.173          -0.148          -0.974       2.181e-01          0.2472
 483       4.433e+00      -5.742e-01       8.888e-03          -0.040          -0.062          -0.997       3.411e-01          0.3614
 484       4.090e+00      -5.742e-01      -9.152e-03           0.122           0.047          -0.991       4.521e-01          0.3294
 485       3.664e+00      -5.742e-01      -8.267e-02           0.208           0.108          -0.972       5.455e-01          0.2184
 486       3.180e+00      -5.743e-01      -1.800e-01           0.185           0.090          -0.979       5.942e-01          0.0729
 487       2.666e+00      -5.743e-01      -2.513e-01           0.090           0.019          -0.996       6.014e-01          0.0079
 488       2.152e+00      -5.743e-01      -2.772e-01           0.010          -0.043          -0.999       5.821e-01          0.0575
 489       1.668e+00      -5.743e-01      -2.692e-01          -0.045          -0.087          -0.995       5.329e-01          0.1475
 490       1.242e+00      -5.743e-01      -2.394e-01          -0.098          -0.130          -0.987       4.543e-01          0.2509
 491       8.988e-01      -5.743e-01      -1.933e-01          -0.174          -0.194          -0.966       3.523e-01          0.3745
 492       6.582e-01      -5.743e-01      -1.293e-01          -0.351          -0.342          -0.872       2.436e-01          0.5572
 493       5.344e-01      -5.742e-01      -3.687e-02          -0.686          -0.614          -0.390       1.849e-01          0.3722
 494       5.344e-01      -5.742e-01       7.467e-02          -0.699          -0.599           0.390       1.850e-01         -0.9055
 495       6.582e-01      -5.741e-01       1.686e-01          -0.361          -0.289           0.887       2.395e-01         -1.7649
 496       8.988e-01      -5.741e-01       2.333e-01          -0.178          -0.129           0.975       3.487e-01         -1.0911
 497       1.242e+00      -5.741e-01       2.794e-01          -0.097          -0.060           0.994       4.511e-01         -0.8004
 498       1.668e+00      -5.741e-01       3.086e-01          -0.045          -0.017           0.999       5.307e-01         -0.6876
 499       2.152e+00      -5.741e-01       3.195e-01          -0.002           0.017           1.000       5.814e-01         -0.6309
 500       2.666e+00      -5.741e-01       3.108e-01           0.036           0.046           0.998       5.997e-01         -0.5860
 501       3.180e+00      -5.741e-01       2.814e-01           0.079           0.078           0.994       5.849e-01         -0.5336
 502       3.664e+00      -5.741e-01       2.307e-01           0.131           0.115           0.985       5.383e-01         -0.4398
 503       4.090e+00      -5.741e-01       1.622e-01           0.188           0.155           0.970       4.621e-01         -0.2952
 504       4.433e+00      -5.742e-01       8.721e-02           0.239           0.188           0.953       3.570e-01         -0.1203
 505       4.673e+00      -5.742e-01       2.281e-02           0.277           0.213           0.937       2.266e-01          0.0901
 506       4.797e+00      -5.742e-01      -1.474e-02           0.301           0.228           0.926       7.795e-02          0.2190
Strip 20
 507       4.797e+00       5.742e-01      -2.748e-02           0.080          -0.014          -0.997       7.242e-02         -0.0446
 508       4.673e+00       5.742e-01      -1.356e-02          -0.173           0.148          -0.974       2.181e-01          0.2472
 509       4.433e+00       5.742e-01       8.888e-03          -0.040           0.062          -0.997       3.411e-01          0.3614
 510       4.090e+00       5.742e-01      -9.152e-03           0.122          -0.047          -0.991       4.521e-01          0.3294
 511       3.664e+00       5.742e-01      -8.267e-02           0.208          -0.108          -0.972       5.455e-01          0.2184
 512       3.180e+00       5.743e-01      -1.800e-01           0.185          -0.090          -0.979       5.942e-01          0.0729
 513       2.666e+00       5.743e-01      -2.513e-01           0.090          -0.019          -0.996       6.014e-01          0.0079
 514       2.152e+00       5.743e-01      -2.772e-01           0.010           0.043          -0.999       5.821e-01          0.0575
 515       1.668e+00       5.743e-01      -2.692e-01          -0.045           0.087          -0.995       5.329e-01          0.1475
 516       1.242e+00       5.743e-01      -2.394e-01          -0.098           0.130          -0.987       4.543e-01          0.2509
 517       8.988e-01       5.743e-01      -1.933e-01          -0.174           0.194          -0.966       3.523e-01          0.3745
 518       6.582e-01       5.743e-01      -1.293e-01          -0.351           0.342          -0.872       2.436e-01          0.5572
 519       5.344e-01       5.742e-01      -3.687e-02          -0.686           0.614          -0.390       1.849e-01          0.3722
 520       5.344e-01       5.742e-01       7.467e-02          -0.699           0.599           0.390       1.850e-01         -0.9055
 521       6.582e-01       5.741e-01       1.686e-01          -0.361           0.289           0.887       2.395e-01         -1.7649
 522       8.988e-01       5.741e-01       2.333e-01          -0.178           0.129           0.975       3.487e-01         -1.0911
 523       1.242e+00       5.741e-01       2.794e-01          -0.097           0.060           0.994       4.511e-01         -0.8004
 524       1.668e+00       5.741e-01       3.086e-01          -0.045           0.017           0.999       5.307e-01         -0.6876
 525       2.152e+00       5.741e-01       3.195e-01          -0.002          -0.017           1.000       5.814e-01         -0.6309
 526       2.666e+00       5.741e-01       3.108e-01           0.036          -0.046           0.998       5.997e-01         -0.5860
 527       3.180e+00       5.741e-01       2.814e-01           0.079          -0.078           0.994       5.849e-01         -0.5336
 528       3.664e+00       5.741e-01       2.307e-01           0.131          -0.115           0.985       5.383e-01         -0.4398
 529       4.090e+00       5.741e-01       1.622e-01           0.188          -0.155           0.970       4.621e-01         -0.2952
 530       4.433e+00       5.742e-01       8.721e-02           0.239          -0.188           0.953       3.570e-01         -0.1203
 531       4.673e+00       5.742e-01       2.281e-02           0.277          -0.213           0.937       2.266e-01          0.0901
 532       4.797e+00       5.742e-01      -1.474e-02           0.301          -0.228           0.926       7.795e-02          0.2190
Strip 21
 533       5.534e+00       1.719e+00       1.542e-02           0.080          -0.014          -0.997       6.748e-02         -0.0390
 534       5.418e+00       1.719e+00       2.848e-02          -0.173           0.148          -0.974       2.032e-01          0.2429
 535       5.192e+00       1.719e+00       4.954e-02          -0.040           0.062          -0.997       3.178e-01          0.3547
 536       4.870e+00       1.719e+00       3.262e-02           0.122          -0.047          -0.991       4.213e-01          0.3324
 537       4.471e+00       1.719e+00      -3.635e-02           0.208          -0.108          -0.972       5.083e-01          0.2378
 538       4.017e+00       1.719e+00      -1.276e-01           0.185          -0.090          -0.979       5.537e-01          0.1039
 539       3.534e+00       1.719e+00      -1.945e-01           0.090          -0.019          -0.996       5.604e-01          0.0366
 540       3.052e+00       1.719e+00      -2.188e-01           0.010           0.043          -0.999       5.424e-01          0.0739
 541       2.598e+00       1.719e+00      -2.113e-01          -0.045           0.087          -0.995       4.965e-01          0.1545
 542       2.199e+00       1.719e+00      -1.834e-01          -0.098           0.130          -0.987       4.233e-01          0.2566
 543       1.877e+00       1.719e+00      -1.401e-01          -0.174           0.194          -0.966       3.282e-01          0.3927
 544       1.651e+00       1.719e+00      -8.012e-02          -0.351           0.342          -0.871       2.270e-01          0.5657
 545       1.535e+00       1.719e+00       6.617e-03          -0.686           0.614          -0.390       1.722e-01          0.1674
 546       1.535e+00       1.719e+00       1.113e-01          -0.699           0.599           0.391       1.724e-01         -1.4814
 547       1.651e+00       1.718e+00       1.994e-01          -0.361           0.289           0.887       2.232e-01         -2.4407
 548       1.877e+00       1.718e+00       2.601e-01          -0.178           0.129           0.975       3.249e-01         -1.4519
 549       2.199e+00       1.718e+00       3.033e-01          -0.097           0.060           0.994       4.203e-01         -1.0079
 550       2.598e+00       1.718e+00       3.308e-01          -0.045           0.017           0.999       4.945e-01         -0.8006
 551       3.052e+00       1.718e+00       3.410e-01          -0.002          -0.017           1.000       5.417e-01         -0.6759
 552       3.534e+00       1.718e+00       3.328e-01           0.036          -0.046           0.998       5.588e-01         -0.5843
 553       4.017e+00       1.718e+00       3.052e-01           0.079          -0.078           0.994       5.449e-01         -0.4982
 554       4.471e+00       1.718e+00       2.577e-01           0.131          -0.115           0.985       5.016e-01         -0.3893
 555       4.870e+00       1.718e+00       1.934e-01           0.188          -0.155           0.970       4.305e-01         -0.2485
 556       5.192e+00       1.719e+00       1.230e-01           0.239          -0.188           0.953       3.326e-01         -0.0866
 557       5.418e+00       1.719e+00       6.261e-02           0.277          -0.213           0.937       2.111e-01          0.1108
 558       5.534e+00       1.719e+00       2.738e-02           0.301          -0.228           0.926       7.262e-02          0.2366
Strip 22
 559       6.263e+00       2.851e+00       5.789e-02           0.080          -0.014          -0.997       6.222e-02         -0.0342
 560       6.155e+00       2.851e+00       7.010e-02          -0.173           0.148          -0.974       1.873e-01          0.2428
 561       5.944e+00       2.851e+00       8.978e-02          -0.040           0.062          -0.997       2.930e-01          0.3527
 562       5.643e+00       2.851e+00       7.396e-02           0.122          -0.047          -0.991       3.884e-01          0.3313
 563       5.269e+00       2.852e+00       9.497e-03           0.208          -0.108          -0.972       4.687e-01          0.2410
 564       4.845e+00       2.852e+00      -7.584e-02           0.185          -0.090          -0.979       5.106e-01          0.1155
 565       4.394e+00       2.852e+00      -1.384e-01           0.090          -0.019          -0.996       5.167e-01          0.0564
 566       3.944e+00       2.852e+00      -1.611e-01           0.010           0.043          -0.999       5.000e-01          0.0984
 567       3.519e+00       2.852e+00      -1.541e-01          -0.045           0.087          -0.995       4.577e-01          0.1824
 568       3.146e+00       2.852e+00      -1.279e-01          -0.098           0.130          -0.987       3.902e-01          0.2887
[...]
 852       1.152e+01       1.249e+01       3.300e-01           0.010           0.043          -0.999       9.127e-02          0.1937
 853       1.135e+01       1.249e+01       3.328e-01          -0.045           0.087          -0.995       8.346e-02          0.2965
 854       1.120e+01       1.249e+01       3.435e-01          -0.098           0.130          -0.987       7.109e-02          0.4156
 855       1.107e+01       1.248e+01       3.599e-01          -0.175           0.194          -0.965       5.504e-02          0.5314
 856       1.099e+01       1.248e+01       3.827e-01          -0.354           0.344          -0.870       3.795e-02          0.3558
 857       1.094e+01       1.248e+01       4.156e-01          -0.690           0.617          -0.378       2.881e-02         -1.0935
 858       1.094e+01       1.248e+01       4.554e-01          -0.695           0.595           0.403       2.917e-02         -3.7478
 859       1.099e+01       1.248e+01       4.889e-01          -0.358           0.287           0.888       3.779e-02         -4.5540
 860       1.107e+01       1.248e+01       5.119e-01          -0.178           0.129           0.976       5.486e-02         -2.4450
 861       1.120e+01       1.248e+01       5.283e-01          -0.096           0.060           0.994       7.085e-02         -1.5706
 862       1.135e+01       1.248e+01       5.387e-01          -0.044           0.017           0.999       8.327e-02         -1.1547
 863       1.152e+01       1.248e+01       5.426e-01          -0.002          -0.017           1.000       9.114e-02         -0.9049
 864       1.170e+01       1.248e+01       5.395e-01           0.036          -0.046           0.998       9.395e-02         -0.7320
 865       1.189e+01       1.248e+01       5.290e-01           0.079          -0.078           0.994       9.156e-02         -0.5925
 866       1.206e+01       1.248e+01       5.110e-01           0.131          -0.115           0.985       8.421e-02         -0.4483
 867       1.221e+01       1.248e+01       4.866e-01           0.189          -0.155           0.970       7.222e-02         -0.2800
 868       1.233e+01       1.248e+01       4.598e-01           0.239          -0.189           0.952       5.576e-02         -0.0944
 869       1.242e+01       1.248e+01       4.369e-01           0.278          -0.213           0.937       3.537e-02          0.1245
 870       1.246e+01       1.248e+01       4.235e-01           0.303          -0.229           0.925       1.217e-02          0.2631
Strip 34
 871       1.276e+01       1.294e+01       4.363e-01           0.080          -0.014          -0.997       8.752e-03         -0.0335
 872       1.272e+01       1.294e+01       4.409e-01          -0.174           0.149          -0.973       2.624e-02          0.2129
 873       1.264e+01       1.294e+01       4.483e-01          -0.040           0.062          -0.997       4.113e-02          0.3076
 874       1.253e+01       1.294e+01       4.423e-01           0.122          -0.047          -0.991       5.468e-02          0.2854
 875       1.239e+01       1.295e+01       4.180e-01           0.208          -0.107          -0.972       6.608e-02          0.2106
 876       1.222e+01       1.295e+01       3.857e-01           0.184          -0.090          -0.979       7.197e-02          0.1219
 877       1.205e+01       1.295e+01       3.621e-01           0.089          -0.019          -0.996       7.272e-02          0.1024
 878       1.188e+01       1.295e+01       3.535e-01           0.010           0.043          -0.999       7.026e-02          0.1718
 879       1.172e+01       1.295e+01       3.562e-01          -0.045           0.087          -0.995       6.424e-02          0.2779
 880       1.158e+01       1.295e+01       3.660e-01          -0.098           0.130          -0.987       5.471e-02          0.4012
 881       1.147e+01       1.295e+01       3.813e-01          -0.175           0.194          -0.965       4.235e-02          0.5218
 882       1.139e+01       1.295e+01       4.025e-01          -0.354           0.344          -0.870       2.919e-02          0.3561
 883       1.135e+01       1.294e+01       4.332e-01          -0.690           0.618          -0.376       2.216e-02         -1.0771
 884       1.135e+01       1.294e+01       4.701e-01          -0.695           0.595           0.404       2.247e-02         -3.7041
 885       1.139e+01       1.294e+01       5.013e-01          -0.358           0.287           0.889       2.912e-02         -4.5034
 886       1.147e+01       1.294e+01       5.227e-01          -0.177           0.129           0.976       4.225e-02         -2.4144
 887       1.158e+01       1.294e+01       5.380e-01          -0.096           0.060           0.994       5.455e-02         -1.5448
 888       1.172e+01       1.294e+01       5.477e-01          -0.044           0.017           0.999       6.411e-02         -1.1298
 889       1.188e+01       1.294e+01       5.513e-01          -0.002          -0.017           1.000       7.016e-02         -0.8797
 890       1.205e+01       1.294e+01       5.484e-01           0.036          -0.046           0.998       7.232e-02         -0.7067
 891       1.222e+01       1.294e+01       5.386e-01           0.079          -0.078           0.994       7.048e-02         -0.5689
 892       1.239e+01       1.294e+01       5.218e-01           0.131          -0.116           0.985       6.481e-02         -0.4296
 893       1.253e+01       1.294e+01       4.991e-01           0.189          -0.155           0.970       5.558e-02         -0.2675
 894       1.264e+01       1.294e+01       4.743e-01           0.239          -0.189           0.952       4.290e-02         -0.0861
 895       1.272e+01       1.294e+01       4.529e-01           0.278          -0.214           0.936       2.722e-02          0.1301
 896       1.276e+01       1.294e+01       4.405e-01           0.303          -0.229           0.925       9.361e-03          0.2680
Strip 35
 897       1.300e+01       1.332e+01       4.502e-01           0.080          -0.014          -0.997       6.453e-03         -0.0513
 898       1.296e+01       1.332e+01       4.546e-01          -0.174           0.149          -0.973       1.934e-02          0.1764
 899       1.289e+01       1.332e+01       4.616e-01          -0.040           0.062          -0.997       3.033e-02          0.2604
 900       1.278e+01       1.332e+01       4.560e-01           0.122          -0.047          -0.991       4.033e-02          0.2352
 901       1.265e+01       1.332e+01       4.331e-01           0.207          -0.107          -0.972       4.874e-02          0.1610
 902       1.250e+01       1.332e+01       4.028e-01           0.184          -0.090          -0.979       5.308e-02          0.0729
 903       1.234e+01       1.332e+01       3.806e-01           0.089          -0.019          -0.996       5.362e-02          0.0518
 904       1.218e+01       1.332e+01       3.725e-01           0.010           0.043          -0.999       5.180e-02          0.1217
 905       1.203e+01       1.332e+01       3.750e-01          -0.045           0.087          -0.995       4.736e-02          0.2331
 906       1.189e+01       1.332e+01       3.843e-01          -0.098           0.131          -0.987       4.033e-02          0.3652
 907       1.179e+01       1.332e+01       3.986e-01          -0.175           0.194          -0.965       3.122e-02          0.4980
 908       1.171e+01       1.332e+01       4.185e-01          -0.354           0.345          -0.869       2.151e-02          0.3667
 909       1.167e+01       1.332e+01       4.473e-01          -0.691           0.618          -0.375       1.633e-02         -1.0001
 910       1.167e+01       1.332e+01       4.820e-01          -0.695           0.594           0.406       1.658e-02         -3.5548
 911       1.171e+01       1.332e+01       5.113e-01          -0.358           0.287           0.889       2.148e-02         -4.3518
 912       1.179e+01       1.332e+01       5.314e-01          -0.177           0.129           0.976       3.116e-02         -2.3282
 913       1.189e+01       1.331e+01       5.458e-01          -0.096           0.060           0.994       4.023e-02         -1.4783
 914       1.203e+01       1.331e+01       5.549e-01          -0.044           0.017           0.999       4.727e-02         -1.0699
 915       1.218e+01       1.331e+01       5.583e-01          -0.002          -0.017           1.000       5.173e-02         -0.8227
 916       1.234e+01       1.331e+01       5.555e-01           0.036          -0.046           0.998       5.332e-02         -0.6537
 917       1.250e+01       1.331e+01       5.464e-01           0.079          -0.078           0.994       5.195e-02         -0.5238
 918       1.265e+01       1.332e+01       5.306e-01           0.131          -0.116           0.985       4.777e-02         -0.3977
 919       1.278e+01       1.332e+01       5.093e-01           0.189          -0.155           0.970       4.096e-02         -0.2504
 920       1.289e+01       1.332e+01       4.859e-01           0.240          -0.189           0.952       3.162e-02         -0.0782
 921       1.296e+01       1.332e+01       4.659e-01           0.278          -0.214           0.936       2.006e-02          0.1341
 922       1.300e+01       1.332e+01       4.542e-01           0.303          -0.229           0.925       6.899e-03          0.2716
Strip 36
 923       1.318e+01       1.360e+01       4.608e-01           0.080          -0.014          -0.997       4.415e-03         -0.1158
 924       1.315e+01       1.360e+01       4.649e-01          -0.174           0.149          -0.973       1.323e-02          0.0719
 925       1.308e+01       1.360e+01       4.716e-01          -0.040           0.062          -0.997       2.074e-02          0.1388
 926       1.297e+01       1.360e+01       4.662e-01           0.122          -0.047          -0.991       2.759e-02          0.1216
 927       1.285e+01       1.360e+01       4.445e-01           0.207          -0.107          -0.972       3.335e-02          0.0648
 928       1.270e+01       1.360e+01       4.157e-01           0.184          -0.090          -0.979       3.632e-02         -0.0105
 929       1.255e+01       1.360e+01       3.946e-01           0.089          -0.019          -0.996       3.669e-02         -0.0343
 930       1.240e+01       1.360e+01       3.869e-01           0.010           0.043          -0.999       3.544e-02          0.0247
 931       1.226e+01       1.360e+01       3.893e-01          -0.045           0.087          -0.995       3.239e-02          0.1319
 932       1.213e+01       1.360e+01       3.981e-01          -0.098           0.131          -0.987       2.758e-02          0.2742
 933       1.203e+01       1.360e+01       4.117e-01          -0.175           0.194          -0.965       2.135e-02          0.4319
 934       1.196e+01       1.360e+01       4.307e-01          -0.354           0.345          -0.869       1.470e-02          0.3711
 935       1.192e+01       1.360e+01       4.580e-01          -0.691           0.618          -0.374       1.117e-02         -0.8556
 936       1.192e+01       1.360e+01       4.911e-01          -0.694           0.594           0.407       1.134e-02         -3.2681
 937       1.196e+01       1.360e+01       5.189e-01          -0.358           0.286           0.889       1.470e-02         -4.0600
 938       1.203e+01       1.360e+01       5.380e-01          -0.177           0.129           0.976       2.132e-02         -2.1586
 939       1.213e+01       1.360e+01       5.516e-01          -0.096           0.060           0.994       2.752e-02         -1.3487
 940       1.226e+01       1.360e+01       5.603e-01          -0.044           0.017           0.999       3.234e-02         -0.9572
 941       1.240e+01       1.360e+01       5.635e-01          -0.002          -0.017           1.000       3.539e-02         -0.7264
 942       1.255e+01       1.360e+01       5.609e-01           0.036          -0.046           0.998       3.647e-02         -0.5820
 943       1.270e+01       1.360e+01       5.522e-01           0.079          -0.078           0.994       3.553e-02         -0.4813
 944       1.285e+01       1.360e+01       5.372e-01           0.131          -0.116           0.985       3.267e-02         -0.3860
 945       1.297e+01       1.360e+01       5.170e-01           0.189          -0.155           0.970       2.801e-02         -0.2688
 946       1.308e+01       1.360e+01       4.948e-01           0.240          -0.189           0.952       2.162e-02         -0.1127
 947       1.315e+01       1.360e+01       4.757e-01           0.278          -0.214           0.936       1.372e-02          0.0990
 948       1.318e+01       1.360e+01       4.646e-01           0.303          -0.229           0.925       4.717e-03          0.2401
Strip 37
 949       1.330e+01       1.379e+01       4.679e-01           0.080          -0.014          -0.997       2.570e-03         -0.4915
 950       1.327e+01       1.379e+01       4.719e-01          -0.174           0.149          -0.973       7.696e-03         -0.4305
 951       1.320e+01       1.379e+01       4.783e-01          -0.040           0.062          -0.997       1.207e-02         -0.3367
 952       1.310e+01       1.379e+01       4.731e-01           0.122          -0.047          -0.991       1.606e-02         -0.2314
 953       1.298e+01       1.379e+01       4.521e-01           0.207          -0.107          -0.972       1.941e-02         -0.1561
 954       1.284e+01       1.379e+01       4.243e-01           0.184          -0.090          -0.979       2.114e-02         -0.1452
 955       1.270e+01       1.379e+01       4.039e-01           0.089          -0.019          -0.996       2.135e-02         -0.1452
 956       1.255e+01       1.379e+01       3.965e-01           0.010           0.043          -0.999       2.062e-02         -0.1034
 957       1.241e+01       1.379e+01       3.988e-01          -0.045           0.087          -0.995       1.885e-02         -0.0323
 958       1.229e+01       1.379e+01       4.073e-01          -0.098           0.131          -0.987       1.605e-02          0.0782
 959       1.219e+01       1.379e+01       4.205e-01          -0.175           0.194          -0.965       1.242e-02          0.2403
 960       1.212e+01       1.379e+01       4.388e-01          -0.355           0.345          -0.869       8.553e-03          0.2693
 961       1.209e+01       1.379e+01       4.652e-01          -0.691           0.619          -0.373       6.496e-03         -0.7088
 962       1.209e+01       1.379e+01       4.971e-01          -0.694           0.594           0.408       6.605e-03         -2.8220
 963       1.212e+01       1.379e+01       5.240e-01          -0.358           0.286           0.889       8.561e-03         -3.5680
 964       1.219e+01       1.379e+01       5.424e-01          -0.177           0.129           0.976       1.241e-02         -1.8541
 965       1.229e+01       1.379e+01       5.556e-01          -0.096           0.060           0.994       1.602e-02         -1.1246
 966       1.241e+01       1.379e+01       5.640e-01          -0.044           0.017           0.999       1.882e-02         -0.7990
 967       1.255e+01       1.379e+01       5.671e-01          -0.002          -0.017           1.000       2.059e-02         -0.6388
 968       1.270e+01       1.379e+01       5.646e-01           0.036          -0.046           0.998       2.122e-02         -0.5605
 969       1.284e+01       1.379e+01       5.562e-01           0.079          -0.078           0.994       2.068e-02         -0.5286
 970       1.298e+01       1.379e+01       5.417e-01           0.131          -0.116           0.985       1.901e-02         -0.5186
 971       1.310e+01       1.379e+01       5.221e-01           0.189          -0.155           0.970       1.630e-02         -0.5152
 972       1.320e+01       1.379e+01       5.007e-01           0.240          -0.189           0.952       1.258e-02         -0.4599
 973       1.327e+01       1.379e+01       4.823e-01           0.279          -0.214           0.936       7.980e-03         -0.2489
 974       1.330e+01       1.379e+01       4.715e-01           0.303          -0.229           0.925       2.744e-03         -0.1090
Strip 38
 975       1.337e+01       1.388e+01       4.715e-01           0.080          -0.014          -0.997       8.431e-04         -0.9906
 976       1.333e+01       1.388e+01       4.754e-01          -0.174           0.149          -0.973       2.525e-03         -1.0797
 977       1.326e+01       1.388e+01       4.817e-01          -0.040           0.062          -0.997       3.961e-03         -0.9321
 978       1.317e+01       1.388e+01       4.766e-01           0.122          -0.047          -0.991       5.269e-03         -0.6755
 979       1.305e+01       1.388e+01       4.560e-01           0.207          -0.107          -0.972       6.371e-03         -0.4375
 980       1.291e+01       1.388e+01       4.287e-01           0.184          -0.090          -0.979       6.938e-03         -0.2934
 981       1.277e+01       1.389e+01       4.086e-01           0.089          -0.019          -0.996       7.006e-03         -0.2272
 982       1.262e+01       1.389e+01       4.014e-01           0.010           0.043          -0.999       6.767e-03         -0.1829
 983       1.249e+01       1.389e+01       4.036e-01          -0.045           0.087          -0.995       6.185e-03         -0.1383
 984       1.237e+01       1.389e+01       4.120e-01          -0.098           0.131          -0.987       5.266e-03         -0.0684
 985       1.227e+01       1.388e+01       4.249e-01          -0.175           0.194          -0.965       4.075e-03          0.0679
 986       1.220e+01       1.388e+01       4.429e-01          -0.355           0.345          -0.869       2.806e-03          0.1769
 987       1.217e+01       1.388e+01       4.688e-01          -0.692           0.619          -0.373       2.131e-03         -0.4601
 988       1.217e+01       1.388e+01       5.001e-01          -0.694           0.593           0.408       2.167e-03         -2.1722
 989       1.220e+01       1.388e+01       5.265e-01          -0.357           0.286           0.889       2.810e-03         -2.8402
 990       1.227e+01       1.388e+01       5.447e-01          -0.177           0.129           0.976       4.073e-03         -1.4266
 991       1.237e+01       1.388e+01       5.576e-01          -0.096           0.060           0.994       5.257e-03         -0.8833
 992       1.249e+01       1.388e+01       5.658e-01          -0.044           0.017           0.999       6.176e-03         -0.6837
 993       1.262e+01       1.388e+01       5.689e-01          -0.002          -0.017           1.000       6.757e-03         -0.5839
 994       1.277e+01       1.388e+01       5.664e-01           0.036          -0.046           0.998       6.963e-03         -0.5292
 995       1.291e+01       1.388e+01       5.581e-01           0.079          -0.078           0.994       6.784e-03         -0.5145
 996       1.305e+01       1.388e+01       5.439e-01           0.131          -0.116           0.985       6.237e-03         -0.5435
 997       1.317e+01       1.388e+01       5.247e-01           0.189          -0.155           0.970       5.347e-03         -0.6432
 998       1.326e+01       1.388e+01       5.036e-01           0.240          -0.189           0.952       4.127e-03         -0.7958
 999       1.333e+01       1.388e+01       4.856e-01           0.279          -0.214           0.936       2.618e-03         -0.5710
1000       1.337e+01       1.388e+01       4.750e-01           0.303          -0.229           0.925       9.003e-04         -0.3883










